// * * * * * * * * * * * * * * * * * * * * * * * * * * * * * * * * * * * * //
FoamFile
{
    version     2.0;
    format      ascii;
    class       dictionary;
    object      range;
}
// * * * * * * * * * * * * * * * * * * * * * * * * * * * * * * * * * * * * //

Xmin        0;
Xmax        1304;
Ymin        0;
Ymax        2030;
Zmin        0;
Zmax        350;
offsetZ     0;
Latmin      -20.269;
Latmax      -20.239;
Lonmin      -40.277;
Lonmax      -40.256;
